<routes xmlns:xsi="http://www.w3.org/2001/XMLSchema-instance" xsi:noNamespaceSchemaLocation="http://sumo.dlr.de/xsd/routes_file.xsd">
    <vType id="SUMO_DEFAULT_TYPE" accel="0.8" decel="4.5" sigma="0" length="5" minGap="2" maxSpeed="70"/>
    <route id="always_right" edges="1fi 1si 4o 4fi 4si 2o 2fi 2si 3o 3fi 3si 1o 1fi"/>
    <route id="always_left" edges="3fi 3si 2o 2fi 2si 4o 4fi 4si 1o 1fi 1si 3o 3fi"/>
    <route id="horizontal" edges="2fi 2si 1o 1fi 1si 2o 2fi"/>
    <route id="vertical" edges="3fi 3si 4o 4fi 4si 3o 3fi"/>

    
    <vehicle id="left_0" type="SUMO_DEFAULT_TYPE" route="vertical" depart="0" />
    <vehicle id="left_1" type="SUMO_DEFAULT_TYPE" route="vertical" depart="2" />
    <vehicle id="right_2" type="SUMO_DEFAULT_TYPE" route="horizontal" depart="3" />
    <vehicle id="down_3" type="SUMO_DEFAULT_TYPE" route="always_right" depart="4" color="1,0,0"/>
    <vehicle id="left_4" type="SUMO_DEFAULT_TYPE" route="vertical" depart="10" />
    <vehicle id="right_5" type="SUMO_DEFAULT_TYPE" route="horizontal" depart="11" />
    <vehicle id="down_6" type="SUMO_DEFAULT_TYPE" route="always_right" depart="16" color="1,0,0"/>
    <vehicle id="right_7" type="SUMO_DEFAULT_TYPE" route="horizontal" depart="22" />
    <vehicle id="left_8" type="SUMO_DEFAULT_TYPE" route="vertical" depart="22" />
    <vehicle id="right_9" type="SUMO_DEFAULT_TYPE" route="horizontal" depart="25" />
    <vehicle id="right_10" type="SUMO_DEFAULT_TYPE" route="horizontal" depart="31" />
    <vehicle id="down_11" type="SUMO_DEFAULT_TYPE" route="always_left" depart="31" color="1,0,0"/>
    <vehicle id="right_12" type="SUMO_DEFAULT_TYPE" route="horizontal" depart="34" />
    <vehicle id="right_13" type="SUMO_DEFAULT_TYPE" route="horizontal" depart="40" />
    <vehicle id="left_14" type="SUMO_DEFAULT_TYPE" route="vertical" depart="41" />
    <vehicle id="right_15" type="SUMO_DEFAULT_TYPE" route="horizontal" depart="44" />
    <vehicle id="left_16" type="SUMO_DEFAULT_TYPE" route="vertical" depart="49" />
    <vehicle id="right_17" type="SUMO_DEFAULT_TYPE" route="horizontal" depart="56" />
    <vehicle id="right_18" type="SUMO_DEFAULT_TYPE" route="horizontal" depart="63" />
    <vehicle id="right_19" type="SUMO_DEFAULT_TYPE" route="horizontal" depart="64" />
    <vehicle id="left_20" type="SUMO_DEFAULT_TYPE" route="vertical" depart="67" />
    <vehicle id="right_21" type="SUMO_DEFAULT_TYPE" route="horizontal" depart="69" />
    <vehicle id="down_22" type="SUMO_DEFAULT_TYPE" route="always_left" depart="72" color="1,0,0"/>
    <vehicle id="left_23" type="SUMO_DEFAULT_TYPE" route="vertical" depart="74" />
    <vehicle id="right_24" type="SUMO_DEFAULT_TYPE" route="horizontal" depart="81" />
    <vehicle id="down_25" type="SUMO_DEFAULT_TYPE" route="always_left" depart="85" color="1,0,0"/>
    <vehicle id="right_26" type="SUMO_DEFAULT_TYPE" route="horizontal" depart="92" />
    <vehicle id="down_27" type="SUMO_DEFAULT_TYPE" route="always_left" depart="98" color="1,0,0"/>
    <vehicle id="down_28" type="SUMO_DEFAULT_TYPE" route="always_right" depart="103" color="1,0,0"/>
    <vehicle id="down_29" type="SUMO_DEFAULT_TYPE" route="always_right" depart="106" color="1,0,0"/>
    <vehicle id="right_30" type="SUMO_DEFAULT_TYPE" route="horizontal" depart="115" />
    <vehicle id="left_31" type="SUMO_DEFAULT_TYPE" route="vertical" depart="117" />
    <vehicle id="left_32" type="SUMO_DEFAULT_TYPE" route="vertical" depart="120" />
    <vehicle id="left_33" type="SUMO_DEFAULT_TYPE" route="vertical" depart="123" />
    <vehicle id="left_34" type="SUMO_DEFAULT_TYPE" route="vertical" depart="125" />
    <vehicle id="right_35" type="SUMO_DEFAULT_TYPE" route="horizontal" depart="126" />
    <vehicle id="right_36" type="SUMO_DEFAULT_TYPE" route="horizontal" depart="127" />
    <vehicle id="left_37" type="SUMO_DEFAULT_TYPE" route="vertical" depart="129" />
    <vehicle id="down_38" type="SUMO_DEFAULT_TYPE" route="always_left" depart="129" color="1,0,0"/>
    <vehicle id="right_39" type="SUMO_DEFAULT_TYPE" route="horizontal" depart="132" />
    <vehicle id="down_40" type="SUMO_DEFAULT_TYPE" route="always_right" depart="135" color="1,0,0"/>
    <vehicle id="left_41" type="SUMO_DEFAULT_TYPE" route="vertical" depart="137" />
    <vehicle id="right_42" type="SUMO_DEFAULT_TYPE" route="horizontal" depart="138" />
    <vehicle id="right_43" type="SUMO_DEFAULT_TYPE" route="horizontal" depart="139" />
    <vehicle id="left_44" type="SUMO_DEFAULT_TYPE" route="vertical" depart="147" />
    <vehicle id="down_45" type="SUMO_DEFAULT_TYPE" route="always_left" depart="149" color="1,0,0"/>
    <vehicle id="right_46" type="SUMO_DEFAULT_TYPE" route="horizontal" depart="150" />
    <vehicle id="right_47" type="SUMO_DEFAULT_TYPE" route="horizontal" depart="152" />
    <vehicle id="left_48" type="SUMO_DEFAULT_TYPE" route="vertical" depart="159" />
    <vehicle id="right_49" type="SUMO_DEFAULT_TYPE" route="horizontal" depart="164" />
    <vehicle id="right_50" type="SUMO_DEFAULT_TYPE" route="horizontal" depart="171" />
    <vehicle id="right_51" type="SUMO_DEFAULT_TYPE" route="horizontal" depart="179" />
    <vehicle id="right_52" type="SUMO_DEFAULT_TYPE" route="horizontal" depart="180" />
    <vehicle id="right_53" type="SUMO_DEFAULT_TYPE" route="horizontal" depart="182" />
    <vehicle id="right_54" type="SUMO_DEFAULT_TYPE" route="horizontal" depart="192" />
    <vehicle id="left_55" type="SUMO_DEFAULT_TYPE" route="vertical" depart="204" />
    <vehicle id="down_56" type="SUMO_DEFAULT_TYPE" route="always_left" depart="206" color="1,0,0"/>
    <vehicle id="right_57" type="SUMO_DEFAULT_TYPE" route="horizontal" depart="213" />
    <vehicle id="right_58" type="SUMO_DEFAULT_TYPE" route="horizontal" depart="216" />
    <vehicle id="left_59" type="SUMO_DEFAULT_TYPE" route="vertical" depart="218" />
    <vehicle id="down_60" type="SUMO_DEFAULT_TYPE" route="always_left" depart="220" color="1,0,0"/>
    <vehicle id="right_61" type="SUMO_DEFAULT_TYPE" route="horizontal" depart="227" />
    <vehicle id="left_62" type="SUMO_DEFAULT_TYPE" route="vertical" depart="232" />
    <vehicle id="right_63" type="SUMO_DEFAULT_TYPE" route="horizontal" depart="239" />
    <vehicle id="right_64" type="SUMO_DEFAULT_TYPE" route="horizontal" depart="241" />
    <vehicle id="down_65" type="SUMO_DEFAULT_TYPE" route="always_left" depart="241" color="1,0,0"/>
    <vehicle id="right_66" type="SUMO_DEFAULT_TYPE" route="horizontal" depart="244" />
    <vehicle id="right_67" type="SUMO_DEFAULT_TYPE" route="horizontal" depart="245" />
    <vehicle id="down_68" type="SUMO_DEFAULT_TYPE" route="always_right" depart="248" color="1,0,0"/>
    <vehicle id="right_69" type="SUMO_DEFAULT_TYPE" route="horizontal" depart="250" />
    <vehicle id="left_70" type="SUMO_DEFAULT_TYPE" route="vertical" depart="253" />
    <vehicle id="right_71" type="SUMO_DEFAULT_TYPE" route="horizontal" depart="254" />
    <vehicle id="down_72" type="SUMO_DEFAULT_TYPE" route="always_left" depart="256" color="1,0,0"/>
    <vehicle id="left_73" type="SUMO_DEFAULT_TYPE" route="vertical" depart="258" />
    <vehicle id="down_74" type="SUMO_DEFAULT_TYPE" route="always_left" depart="258" color="1,0,0"/>
    <vehicle id="left_75" type="SUMO_DEFAULT_TYPE" route="vertical" depart="262" />
    <vehicle id="left_76" type="SUMO_DEFAULT_TYPE" route="vertical" depart="265" />
    <vehicle id="right_77" type="SUMO_DEFAULT_TYPE" route="horizontal" depart="266" />
    <vehicle id="left_78" type="SUMO_DEFAULT_TYPE" route="vertical" depart="281" />
    <vehicle id="left_79" type="SUMO_DEFAULT_TYPE" route="vertical" depart="283" />
    <vehicle id="down_80" type="SUMO_DEFAULT_TYPE" route="always_right" depart="284" color="1,0,0"/>
    <vehicle id="right_81" type="SUMO_DEFAULT_TYPE" route="horizontal" depart="287" />
    <vehicle id="left_82" type="SUMO_DEFAULT_TYPE" route="vertical" depart="287" />
    <vehicle id="left_83" type="SUMO_DEFAULT_TYPE" route="vertical" depart="291" />
    <vehicle id="right_84" type="SUMO_DEFAULT_TYPE" route="horizontal" depart="292" />
    <vehicle id="down_85" type="SUMO_DEFAULT_TYPE" route="always_left" depart="293" color="1,0,0"/>
    <vehicle id="right_86" type="SUMO_DEFAULT_TYPE" route="horizontal" depart="296" />
    <vehicle id="left_87" type="SUMO_DEFAULT_TYPE" route="vertical" depart="296" />
    <vehicle id="right_88" type="SUMO_DEFAULT_TYPE" route="horizontal" depart="298" />
    <vehicle id="left_89" type="SUMO_DEFAULT_TYPE" route="vertical" depart="298" />
    <vehicle id="right_90" type="SUMO_DEFAULT_TYPE" route="horizontal" depart="309" />
    <vehicle id="right_91" type="SUMO_DEFAULT_TYPE" route="horizontal" depart="310" />
    <vehicle id="right_92" type="SUMO_DEFAULT_TYPE" route="horizontal" depart="311" />
    <vehicle id="left_93" type="SUMO_DEFAULT_TYPE" route="vertical" depart="315" />
    <vehicle id="right_94" type="SUMO_DEFAULT_TYPE" route="horizontal" depart="320" />
    <vehicle id="right_95" type="SUMO_DEFAULT_TYPE" route="horizontal" depart="329" />
    <vehicle id="down_96" type="SUMO_DEFAULT_TYPE" route="always_left" depart="330" color="1,0,0"/>
    <vehicle id="right_97" type="SUMO_DEFAULT_TYPE" route="horizontal" depart="340" />
    <vehicle id="left_98" type="SUMO_DEFAULT_TYPE" route="vertical" depart="343" />
    <vehicle id="down_99" type="SUMO_DEFAULT_TYPE" route="always_right" depart="344" color="1,0,0"/>
    <vehicle id="right_100" type="SUMO_DEFAULT_TYPE" route="horizontal" depart="346" />
    <vehicle id="right_101" type="SUMO_DEFAULT_TYPE" route="horizontal" depart="347" />
    <vehicle id="down_102" type="SUMO_DEFAULT_TYPE" route="always_right" depart="347" color="1,0,0"/>
    <vehicle id="right_103" type="SUMO_DEFAULT_TYPE" route="horizontal" depart="348" />
    <vehicle id="left_104" type="SUMO_DEFAULT_TYPE" route="vertical" depart="350" />
    <vehicle id="right_105" type="SUMO_DEFAULT_TYPE" route="horizontal" depart="352" />
    <vehicle id="left_106" type="SUMO_DEFAULT_TYPE" route="vertical" depart="354" />
    <vehicle id="left_107" type="SUMO_DEFAULT_TYPE" route="vertical" depart="357" />
    <vehicle id="left_108" type="SUMO_DEFAULT_TYPE" route="vertical" depart="359" />
    <vehicle id="right_109" type="SUMO_DEFAULT_TYPE" route="horizontal" depart="363" />
    <vehicle id="right_110" type="SUMO_DEFAULT_TYPE" route="horizontal" depart="366" />
    <vehicle id="left_111" type="SUMO_DEFAULT_TYPE" route="vertical" depart="369" />
    <vehicle id="left_112" type="SUMO_DEFAULT_TYPE" route="vertical" depart="372" />
    <vehicle id="right_113" type="SUMO_DEFAULT_TYPE" route="horizontal" depart="374" />
    <vehicle id="left_114" type="SUMO_DEFAULT_TYPE" route="vertical" depart="376" />
    <vehicle id="right_115" type="SUMO_DEFAULT_TYPE" route="horizontal" depart="388" />
    <vehicle id="right_116" type="SUMO_DEFAULT_TYPE" route="horizontal" depart="389" />
    <vehicle id="left_117" type="SUMO_DEFAULT_TYPE" route="vertical" depart="392" />
    <vehicle id="right_118" type="SUMO_DEFAULT_TYPE" route="horizontal" depart="402" />
    <vehicle id="left_119" type="SUMO_DEFAULT_TYPE" route="vertical" depart="402" />
    <vehicle id="right_120" type="SUMO_DEFAULT_TYPE" route="horizontal" depart="406" />
    <vehicle id="left_121" type="SUMO_DEFAULT_TYPE" route="vertical" depart="406" />
    <vehicle id="left_122" type="SUMO_DEFAULT_TYPE" route="vertical" depart="414" />
    <vehicle id="right_123" type="SUMO_DEFAULT_TYPE" route="horizontal" depart="424" />
    <vehicle id="left_124" type="SUMO_DEFAULT_TYPE" route="vertical" depart="430" />
    <vehicle id="down_125" type="SUMO_DEFAULT_TYPE" route="always_right" depart="433" color="1,0,0"/>
    <vehicle id="down_126" type="SUMO_DEFAULT_TYPE" route="always_left" depart="434" color="1,0,0"/>
    <vehicle id="right_127" type="SUMO_DEFAULT_TYPE" route="horizontal" depart="437" />
    <vehicle id="down_128" type="SUMO_DEFAULT_TYPE" route="always_right" depart="451" color="1,0,0"/>
    <vehicle id="right_129" type="SUMO_DEFAULT_TYPE" route="horizontal" depart="459" />
    <vehicle id="right_130" type="SUMO_DEFAULT_TYPE" route="horizontal" depart="462" />
    <vehicle id="down_131" type="SUMO_DEFAULT_TYPE" route="always_left" depart="468" color="1,0,0"/>
    <vehicle id="left_132" type="SUMO_DEFAULT_TYPE" route="vertical" depart="469" />
    <vehicle id="right_133" type="SUMO_DEFAULT_TYPE" route="horizontal" depart="477" />
    <vehicle id="right_134" type="SUMO_DEFAULT_TYPE" route="horizontal" depart="481" />
    <vehicle id="right_135" type="SUMO_DEFAULT_TYPE" route="horizontal" depart="483" />
    <vehicle id="left_136" type="SUMO_DEFAULT_TYPE" route="vertical" depart="484" />
    <vehicle id="down_137" type="SUMO_DEFAULT_TYPE" route="always_right" depart="484" color="1,0,0"/>
    <vehicle id="left_138" type="SUMO_DEFAULT_TYPE" route="vertical" depart="490" />
    <vehicle id="down_139" type="SUMO_DEFAULT_TYPE" route="always_left" depart="490" color="1,0,0"/>
    <vehicle id="down_140" type="SUMO_DEFAULT_TYPE" route="always_left" depart="494" color="1,0,0"/>
    <vehicle id="right_141" type="SUMO_DEFAULT_TYPE" route="horizontal" depart="495" />
    <vehicle id="left_142" type="SUMO_DEFAULT_TYPE" route="vertical" depart="495" />
    <vehicle id="right_143" type="SUMO_DEFAULT_TYPE" route="horizontal" depart="496" />
</routes>
